matpower-plain/case15da.m
function mpc = case15da
%CASE15DA  Power flow data for 15 bus distribution system from Das, et al
%   Please see CASEFORMAT for details on the case file format.
%
%   Data from ...
%       Das D, Kothari DP, Kalam A (1995) Simple and efficient method for load
%       flow solution of radial distribution networks. Int J Electr Power
%       Energy Syst 17:335-346. doi: 10.1016/0142-0615(95)00050-0
%       URL: https://doi.org/10.1016/0142-0615(95)00050-0
%
%   Plain-data copy of benchmark-grids/matpower/case15da.m: the file's
%   MATLAB statements (below, as they were) are evaluated by
%   scripts/evaluate_matpower_code.py and the matrices hold the result.
%     Vbase = mpc.bus(1, BASE_KV) * 1e3;
%     Sbase = mpc.baseMVA * 1e6;
%     mpc.branch(:, [BR_R BR_X]) = mpc.branch(:, [BR_R BR_X]) / (Vbase^2 / Sbase);
%     mpc.bus(:, [PD, QD]) = mpc.bus(:, [PD, QD]) / 1e3;

%% MATPOWER Case Format : Version 2
mpc.version = '2';

mpc.baseMVA = 1;

mpc.bus = [
	1	3	0	0	0	0	1	1	0	11	1	1	1;
	2	1	0.0441	0.044991	0	0	1	1	0	11	1	1.1	0.9;
	3	1	0.07	0.0714143	0	0	1	1	0	11	1	1.1	0.9;
	4	1	0.14	0.1428286	0	0	1	1	0	11	1	1.1	0.9;
	5	1	0.0441	0.044991	0	0	1	1	0	11	1	1.1	0.9;
	6	1	0.14	0.1428286	0	0	1	1	0	11	1	1.1	0.9;
	7	1	0.14	0.1428286	0	0	1	1	0	11	1	1.1	0.9;
	8	1	0.07	0.0714143	0	0	1	1	0	11	1	1.1	0.9;
	9	1	0.07	0.0714143	0	0	1	1	0	11	1	1.1	0.9;
	10	1	0.0441	0.044991	0	0	1	1	0	11	1	1.1	0.9;
	11	1	0.14	0.1428286	0	0	1	1	0	11	1	1.1	0.9;
	12	1	0.07	0.0714143	0	0	1	1	0	11	1	1.1	0.9;
	13	1	0.0441	0.044991	0	0	1	1	0	11	1	1.1	0.9;
	14	1	0.07	0.0714143	0	0	1	1	0	11	1	1.1	0.9;
	15	1	0.14	0.1428286	0	0	1	1	0	11	1	1.1	0.9;
];

mpc.gen = [
	1	0	0	10	-10	1	100	1	10	0	0	0	0	0	0	0	0	0	0	0	0;
];

mpc.branch = [
	1	2	0.011182561983471074	0.010937933884297521	0	0	0	0	0	0	1	-360	360;
	2	3	0.009671404958677686	0.009459834710743803	0	0	0	0	0	0	1	-360	360;
	3	4	0.006951322314049587	0.006799256198347108	0	0	0	0	0	0	1	-360	360;
	4	5	0.012590743801652893	0.008492561983471075	0	0	0	0	0	0	1	-360	360;
	2	9	0.016637768595041322	0.011222314049586778	0	0	0	0	0	0	1	-360	360;
	9	10	0.013939752066115703	0.009402479338842975	0	0	0	0	0	0	1	-360	360;
	2	6	0.021134462809917355	0.014255371900826447	0	0	0	0	0	0	1	-360	360;
	6	7	0.008993388429752067	0.006066115702479339	0	0	0	0	0	0	1	-360	360;
	6	8	0.010342396694214877	0.00697603305785124	0	0	0	0	0	0	1	-360	360;
	3	11	0.01483909090909091	0.01000909090909091	0	0	0	0	0	0	1	-360	360;
	11	12	0.02023512396694215	0.013648760330578512	0	0	0	0	0	0	1	-360	360;
	12	13	0.016637768595041322	0.011222314049586778	0	0	0	0	0	0	1	-360	360;
	4	14	0.018436446280991736	0.012435537190082644	0	0	0	0	0	0	1	-360	360;
	4	15	0.009892727272727274	0.006672727272727273	0	0	0	0	0	0	1	-360	360;
];

mpc.gencost = [
	2	0	0	3	0	20	0;
];
